Version 4.1
SHEET 1 2412 2048
WIRE 288 -976 -608 -976
WIRE -464 -912 -688 -912
WIRE -384 -912 -464 -912
WIRE -224 -912 -272 -912
WIRE -80 -912 -144 -912
WIRE -688 -880 -688 -912
WIRE -80 -880 -80 -912
WIRE -384 -864 -384 -912
WIRE -272 -864 -272 -912
WIRE -2000 -832 -2000 -864
WIRE -1776 -832 -1776 -864
WIRE -1568 -832 -1568 -864
WIRE -608 -816 -608 -976
WIRE -528 -816 -608 -816
WIRE -80 -800 -128 -800
WIRE 288 -800 288 -976
WIRE 288 -800 -80 -800
WIRE -576 -752 -800 -752
WIRE -528 -752 -576 -752
WIRE -800 -736 -800 -752
WIRE -2000 -720 -2000 -752
WIRE -2000 -720 -2080 -720
WIRE -1776 -720 -1776 -752
WIRE -1776 -720 -1856 -720
WIRE -1568 -720 -1568 -752
WIRE -1568 -720 -1648 -720
WIRE -80 -720 -128 -720
WIRE 144 -720 -80 -720
WIRE 160 -720 144 -720
WIRE 288 -720 288 -800
WIRE 304 -720 288 -720
WIRE -2080 -688 -2080 -720
WIRE -2000 -688 -2000 -720
WIRE -1856 -688 -1856 -720
WIRE -1776 -688 -1776 -720
WIRE -1648 -688 -1648 -720
WIRE -1568 -688 -1568 -720
WIRE -576 -688 -736 -688
WIRE -528 -688 -576 -688
WIRE 144 -656 144 -720
WIRE 288 -656 288 -720
WIRE -800 -640 -800 -656
WIRE -96 -640 -128 -640
WIRE -64 -640 -96 -640
WIRE 48 -640 -64 -640
WIRE -576 -624 -640 -624
WIRE -528 -624 -576 -624
WIRE -736 -608 -736 -688
WIRE -64 -608 -64 -640
WIRE 48 -608 48 -640
WIRE -2000 -576 -2000 -608
WIRE -1776 -576 -1776 -608
WIRE -1568 -576 -1568 -608
WIRE 48 -528 48 -544
WIRE 144 -528 144 -576
WIRE 288 -528 288 -576
WIRE -736 -512 -736 -528
WIRE -320 -512 -320 -576
WIRE -640 -496 -640 -624
WIRE -640 -400 -640 -416
WIRE -656 -224 -688 -224
WIRE -960 -208 -1008 -208
WIRE -768 -208 -880 -208
WIRE 240 -208 208 -208
WIRE 352 -208 320 -208
WIRE 432 -208 400 -208
WIRE 544 -208 512 -208
WIRE 624 -208 592 -208
WIRE 736 -208 704 -208
WIRE -656 -192 -688 -192
WIRE -768 -176 -848 -176
WIRE -1968 -160 -2032 -160
WIRE -1888 -160 -1968 -160
WIRE -848 -160 -848 -176
WIRE -640 -160 -688 -160
WIRE -560 -160 -640 -160
WIRE -1968 -144 -1968 -160
WIRE -1888 -144 -1888 -160
WIRE -2032 -112 -2032 -160
WIRE -32 -112 -64 -112
WIRE 96 -112 48 -112
WIRE 176 -112 96 -112
WIRE 208 -112 208 -208
WIRE 208 -112 176 -112
WIRE 240 -112 208 -112
WIRE 352 -112 352 -208
WIRE 352 -112 304 -112
WIRE 368 -112 352 -112
WIRE 400 -112 400 -208
WIRE 400 -112 368 -112
WIRE 448 -112 400 -112
WIRE 544 -112 544 -208
WIRE 544 -112 512 -112
WIRE 576 -112 544 -112
WIRE 592 -112 592 -208
WIRE 592 -112 576 -112
WIRE 640 -112 592 -112
WIRE 736 -112 736 -208
WIRE 736 -112 704 -112
WIRE 768 -112 736 -112
WIRE 880 -112 768 -112
WIRE 928 -112 880 -112
WIRE -1968 -64 -1968 -80
WIRE -1888 -64 -1888 -80
WIRE -1888 -64 -1968 -64
WIRE -1824 -64 -1824 -96
WIRE -1824 -64 -1888 -64
WIRE -1776 -64 -1824 -64
WIRE -1632 -64 -1680 -64
WIRE -1520 -64 -1552 -64
WIRE -1488 -64 -1520 -64
WIRE -848 -64 -848 -80
WIRE -640 -64 -640 -160
WIRE -640 -64 -848 -64
WIRE 96 -64 96 -112
WIRE 880 -64 880 -112
WIRE 176 -48 176 -112
WIRE 368 -48 368 -112
WIRE 576 -48 576 -112
WIRE 768 -48 768 -112
WIRE -848 -32 -848 -64
WIRE -1888 0 -2000 0
WIRE -1776 0 -1808 0
WIRE -1632 32 -1680 32
WIRE -1520 32 -1520 -64
WIRE -1520 32 -1552 32
WIRE 96 48 96 16
WIRE 176 48 176 16
WIRE 368 48 368 16
WIRE 576 48 576 16
WIRE 768 48 768 16
WIRE 880 48 880 16
WIRE -1952 64 -1984 64
WIRE -1776 64 -1872 64
WIRE -848 80 -848 48
WIRE -1920 128 -2000 128
WIRE -1824 128 -1920 128
WIRE -1776 128 -1824 128
WIRE -1632 128 -1680 128
WIRE -2000 144 -2000 128
WIRE -1920 144 -1920 128
WIRE -1824 160 -1824 128
WIRE -1632 160 -1632 128
WIRE -2000 224 -2000 208
WIRE -1920 224 -1920 208
WIRE -1920 224 -2000 224
WIRE -2000 240 -2000 224
WIRE 144 304 -512 304
WIRE 224 416 224 400
WIRE 304 416 224 416
WIRE 224 432 224 416
WIRE 304 432 304 416
WIRE 64 448 64 432
WIRE 64 448 -16 448
WIRE -16 464 -16 448
WIRE 64 464 64 448
WIRE -2016 512 -2080 512
WIRE -1936 512 -2016 512
WIRE 224 512 224 496
WIRE 304 512 304 496
WIRE 304 512 224 512
WIRE 352 512 352 400
WIRE 352 512 304 512
WIRE 368 512 352 512
WIRE 512 512 464 512
WIRE 576 512 512 512
WIRE -2016 528 -2016 512
WIRE -1936 528 -1936 512
WIRE -512 544 -512 304
WIRE -464 544 -512 544
WIRE -352 544 -400 544
WIRE -48 544 -48 432
WIRE -48 544 -80 544
WIRE -16 544 -16 528
WIRE -16 544 -48 544
WIRE 64 544 64 528
WIRE 64 544 -16 544
WIRE -2080 560 -2080 512
WIRE 144 576 144 304
WIRE 368 576 144 576
WIRE -2016 608 -2016 592
WIRE -1936 608 -1936 592
WIRE -1936 608 -2016 608
WIRE -1872 608 -1872 576
WIRE -1872 608 -1936 608
WIRE -1824 608 -1872 608
WIRE -1696 608 -1728 608
WIRE -1664 608 -1696 608
WIRE -1328 608 -1584 608
WIRE -1296 608 -1328 608
WIRE -1088 608 -1232 608
WIRE 512 608 512 512
WIRE 512 608 464 608
WIRE -512 640 -512 544
WIRE -352 640 -512 640
WIRE -32 640 -80 640
WIRE 144 640 32 640
WIRE 368 640 144 640
WIRE -1088 656 -1088 608
WIRE -1824 672 -1872 672
WIRE -1392 672 -1392 656
WIRE -1392 672 -1472 672
WIRE -1472 688 -1472 672
WIRE -1392 688 -1392 672
WIRE -1696 704 -1696 608
WIRE -1696 704 -1728 704
WIRE 304 704 224 704
WIRE 352 704 304 704
WIRE 368 704 352 704
WIRE 512 704 464 704
WIRE 224 720 224 704
WIRE 304 720 304 704
WIRE -1824 736 -1872 736
WIRE -352 736 -432 736
WIRE -32 736 -80 736
WIRE 512 736 512 704
WIRE -1872 752 -1872 736
WIRE -1536 768 -1536 736
WIRE -1472 768 -1472 752
WIRE -1472 768 -1536 768
WIRE -1392 768 -1392 752
WIRE -1392 768 -1472 768
WIRE -1968 800 -2048 800
WIRE -1872 800 -1968 800
WIRE -1824 800 -1872 800
WIRE -1696 800 -1728 800
WIRE 224 800 224 784
WIRE 304 800 304 784
WIRE 304 800 224 800
WIRE -2048 816 -2048 800
WIRE -1968 816 -1968 800
WIRE -1536 816 -1536 768
WIRE 224 816 224 800
WIRE 352 816 352 704
WIRE -1872 832 -1872 800
WIRE -1328 832 -1328 608
WIRE -1328 832 -1504 832
WIRE -432 832 -512 832
WIRE -384 832 -432 832
WIRE -352 832 -384 832
WIRE 144 832 144 640
WIRE 144 832 -80 832
WIRE -1696 848 -1696 800
WIRE -1664 848 -1696 848
WIRE -1568 848 -1584 848
WIRE -880 848 -880 816
WIRE -880 848 -928 848
WIRE -512 848 -512 832
WIRE -432 848 -432 832
WIRE -1328 864 -1504 864
WIRE -2048 896 -2048 880
WIRE -1968 896 -1968 880
WIRE -1968 896 -2048 896
WIRE -2048 912 -2048 896
WIRE -1536 912 -1536 880
WIRE -1472 912 -1536 912
WIRE -1392 912 -1472 912
WIRE -880 912 -928 912
WIRE -1472 928 -1472 912
WIRE -1392 928 -1392 912
WIRE -512 928 -512 912
WIRE -432 928 -432 912
WIRE -432 928 -512 928
WIRE -1536 944 -1536 912
WIRE -512 944 -512 928
WIRE -384 944 -384 832
WIRE -880 960 -880 912
WIRE -1472 1008 -1472 992
WIRE -1392 1008 -1392 992
WIRE -1392 1008 -1472 1008
WIRE -1392 1024 -1392 1008
WIRE -720 1024 -720 1008
WIRE -640 1024 -720 1024
WIRE -720 1040 -720 1024
WIRE -640 1040 -640 1024
WIRE -1696 1072 -1696 848
WIRE -1328 1072 -1328 864
WIRE -1328 1072 -1696 1072
WIRE -720 1120 -720 1104
WIRE -640 1120 -640 1104
WIRE -640 1120 -720 1120
WIRE -592 1120 -592 1008
WIRE -592 1120 -640 1120
WIRE -576 1120 -592 1120
WIRE -432 1120 -480 1120
WIRE -384 1120 -432 1120
WIRE -1088 1136 -1088 1104
WIRE -1008 1136 -1088 1136
WIRE -1088 1184 -1088 1136
WIRE -1008 1184 -1008 1136
WIRE -576 1184 -1008 1184
WIRE -432 1216 -432 1120
WIRE -432 1216 -480 1216
WIRE -576 1248 -1008 1248
WIRE -1088 1296 -1088 1264
WIRE -1008 1296 -1008 1248
WIRE -1008 1296 -1088 1296
WIRE -640 1312 -720 1312
WIRE -592 1312 -640 1312
WIRE -576 1312 -592 1312
WIRE -432 1312 -480 1312
WIRE -1088 1328 -1088 1296
WIRE -720 1328 -720 1312
WIRE -640 1328 -640 1312
WIRE -432 1344 -432 1312
WIRE -720 1408 -720 1392
WIRE -640 1408 -640 1392
WIRE -640 1408 -720 1408
WIRE -720 1424 -720 1408
WIRE -592 1424 -592 1312
FLAG -1856 -688 0
FLAG -1776 -864 5V_cc
IOPIN -1776 -864 Out
FLAG -1776 -576 5V_ee
IOPIN -1776 -576 Out
FLAG -688 -800 0
FLAG -800 -640 0
FLAG -736 -512 0
FLAG -640 -400 0
FLAG -320 -512 0
FLAG -64 -528 0
FLAG 48 -528 0
FLAG -80 -880 0
FLAG -80 -800 IOUT
FLAG -80 -720 IOUTB
FLAG -96 -640 SBO
FLAG -576 -752 MCLK
FLAG -576 -688 FSEL
FLAG -576 -624 PSEL
FLAG -464 -912 AVDD
FLAG 304 -720 IOut
IOPIN 304 -720 Out
FLAG 160 -720 IOutB
IOPIN 160 -720 Out
FLAG -2000 0 IOut
IOPIN -2000 0 In
FLAG -1984 64 IOutB
IOPIN -1984 64 In
FLAG -1488 -64 VOut_SinEnd
IOPIN -1488 -64 Out
FLAG -1008 -208 VOut_SinEnd
IOPIN -1008 -208 In
FLAG -656 -224 12V_cc
IOPIN -656 -224 In
FLAG -656 -192 12V_ee
IOPIN -656 -192 In
FLAG -848 80 0
FLAG -560 -160 VOut_Buff
IOPIN -560 -160 Out
FLAG -64 -112 VOut_Buff
IOPIN -64 -112 In
FLAG 176 48 0
FLAG 368 48 0
FLAG 576 48 0
FLAG 768 48 0
FLAG 880 48 0
FLAG 928 -112 VOut_Filtered
IOPIN 928 -112 Out
FLAG 96 48 0
FLAG 144 -528 0
FLAG 288 -528 0
FLAG -2080 -688 0
FLAG -2000 -864 12V_cc
IOPIN -2000 -864 Out
FLAG -2000 -576 12V_ee
IOPIN -2000 -576 Out
FLAG -1648 -688 0
FLAG -1568 -864 3.3V_cc
IOPIN -1568 -864 Out
FLAG -1568 -576 3.3V_ee
IOPIN -1568 -576 Out
FLAG -2032 -112 0
FLAG -1632 160 0
FLAG -2000 240 0
FLAG -1824 160 12V_ee
IOPIN -1824 160 In
FLAG -1824 -96 12V_cc
IOPIN -1824 -96 In
FLAG -1872 672 VOut_Filtered
IOPIN -1872 672 In
FLAG -2080 560 0
FLAG -1872 576 12V_cc
IOPIN -1872 576 In
FLAG -2048 912 0
FLAG -1872 832 12V_ee
IOPIN -1872 832 In
FLAG -1872 752 0
FLAG -1536 736 12V_ee
IOPIN -1536 736 In
FLAG -1536 944 12V_cc
IOPIN -1536 944 In
FLAG -1392 1024 0
FLAG -1392 656 0
FLAG -1088 656 E1_CurrPump
IOPIN -1088 656 Out
FLAG -1088 1104 E2_CurrPumb
IOPIN -1088 1104 Out
FLAG -720 1008 0
FLAG -592 1008 12V_cc
IOPIN -592 1008 In
FLAG -720 1424 0
FLAG -592 1424 12V_ee
IOPIN -592 1424 In
FLAG -1088 1328 0
FLAG -432 1344 0
FLAG -48 432 12V_cc
IOPIN -48 432 In
FLAG 64 432 0
FLAG -512 944 0
FLAG -384 944 12V_ee
IOPIN -384 944 In
FLAG 224 816 0
FLAG 352 816 12V_ee
IOPIN 352 816 In
FLAG 224 400 0
FLAG 352 400 12V_cc
IOPIN 352 400 In
FLAG 512 736 0
FLAG -384 1120 OverCurrProtect
IOPIN -384 1120 Out
FLAG 576 512 Impedence_Measure
IOPIN 576 512 Out
FLAG -928 848 E3_VolMeas
IOPIN -928 848 Out
FLAG -928 912 E4_VolMeas
IOPIN -928 912 Out
FLAG -432 736 +IN_A
FLAG -32 736 -IN_B
FLAG -880 816 +IN_A
FLAG -880 960 -IN_B
SYMBOL voltage -1776 -848 R0
SYMATTR InstName V2
SYMATTR Value 5
SYMBOL voltage -1776 -704 R0
WINDOW 123 0 0 Left 0
WINDOW 39 0 0 Left 0
SYMATTR InstName V3
SYMATTR Value 5
SYMBOL DAC\\AD9834 -320 -720 R0
SYMATTR InstName U5
SYMATTR SpiceLine TYPE=0 COMP=1 PHASE0={P0} PHASE1={P1}
SYMATTR SpiceLine2 fMCLK={fMCLK} FREQ0={F0} FREQ1={F1}
SYMBOL voltage -688 -896 R0
WINDOW 123 0 0 Left 0
WINDOW 39 0 0 Left 0
SYMATTR InstName V1
SYMATTR Value 3.3
SYMBOL voltage -800 -752 R0
WINDOW 3 -614 56 Left 2
WINDOW 123 0 0 Left 0
WINDOW 39 0 0 Left 0
SYMATTR Value PULSE(0 3.3 0 2n 2n {0.5/fMCLK-1n} {1/fMCLK})
SYMATTR InstName V4
SYMBOL voltage -736 -624 R0
WINDOW 3 -597 58 Left 2
WINDOW 123 0 0 Left 0
WINDOW 39 0 0 Left 0
WINDOW 0 27 25 Left 2
SYMATTR Value PULSE(0 3.3 {2.2/FREQ0} 2n 2n {4/FREQ1} 1m)
SYMATTR InstName V5
SYMBOL voltage -640 -512 R0
WINDOW 3 -599 57 Left 2
WINDOW 123 0 0 Left 0
WINDOW 39 0 0 Left 0
WINDOW 0 31 30 Left 2
SYMATTR Value PULSE(0 3.3 {6.2/FREQ0} 2n 2n {2/FREQ0} 1m)
SYMATTR InstName V6
SYMBOL res -128 -928 R90
WINDOW 0 0 56 VBottom 2
WINDOW 3 32 56 VTop 2
SYMATTR InstName R7
SYMATTR Value {RSET}
SYMBOL res -80 -624 R0
SYMATTR InstName R8
SYMATTR Value 3.1k
SYMBOL cap 32 -608 R0
SYMATTR InstName C6
SYMATTR Value 15p
SYMBOL res 128 -672 R0
WINDOW 3 36 76 Left 1
SYMATTR Value {RTERM}
SYMATTR InstName R9
SYMBOL res 272 -672 R0
WINDOW 3 36 76 Left 1
SYMATTR Value {RTERM}
SYMATTR InstName R10
SYMBOL AD8014 -736 -192 R0
SYMATTR InstName U3
SYMBOL res -1792 -16 R90
WINDOW 0 0 56 VBottom 1
WINDOW 3 32 56 VTop 1
SYMATTR InstName R1
SYMATTR Value 49.9
SYMBOL res -1856 48 R90
WINDOW 0 0 56 VBottom 1
WINDOW 3 32 56 VTop 1
SYMATTR InstName R2
SYMATTR Value 49.9
SYMBOL res -864 -224 R90
WINDOW 0 0 56 VBottom 2
WINDOW 3 32 56 VTop 2
SYMATTR InstName R3
SYMATTR Value 22
SYMBOL res -832 -64 R180
WINDOW 0 36 76 Left 1
WINDOW 3 36 40 Left 2
SYMATTR InstName Rf_AD8014
SYMATTR Value 499
SYMBOL res -864 -48 R0
SYMATTR InstName Rg_AD8014
SYMATTR Value 499
SYMBOL res 64 -128 R90
WINDOW 0 0 56 VBottom 2
WINDOW 3 32 56 VTop 2
SYMATTR InstName Rsource
SYMATTR Value 51
SYMBOL res 80 -80 R0
SYMATTR InstName R4
SYMATTR Value 51
SYMBOL cap 160 -48 R0
SYMATTR InstName C1
SYMATTR Value 180pF
SYMBOL ind 608 -192 R270
WINDOW 0 32 56 VTop 2
WINDOW 3 5 56 VBottom 2
SYMATTR InstName L1
SYMATTR Value 470n
SYMATTR SpiceLine Rser=1m
SYMBOL cap 352 -48 R0
SYMATTR InstName C2
SYMATTR Value 300pF
SYMBOL ind 224 -192 R270
WINDOW 0 32 56 VTop 2
WINDOW 3 5 56 VBottom 2
SYMATTR InstName L2
SYMATTR Value 270n
SYMATTR SpiceLine Rser=1m
SYMBOL cap 560 -48 R0
SYMATTR InstName C3
SYMATTR Value 330pF
SYMBOL ind 416 -192 R270
WINDOW 0 32 56 VTop 2
WINDOW 3 5 56 VBottom 2
SYMATTR InstName L3
SYMATTR Value 390n
SYMATTR SpiceLine Rser=1m
SYMBOL res 864 -80 R0
SYMATTR InstName R5
SYMATTR Value 51
SYMBOL cap 752 -48 R0
SYMATTR InstName C4
SYMATTR Value 270pF
SYMBOL cap 304 -128 R90
WINDOW 0 0 32 VBottom 2
WINDOW 3 32 32 VTop 2
SYMATTR InstName C5
SYMATTR Value 150pF
SYMBOL cap 512 -128 R90
WINDOW 0 0 32 VBottom 2
WINDOW 3 32 32 VTop 2
SYMATTR InstName C7
SYMATTR Value 100pF
SYMBOL cap 704 -128 R90
WINDOW 0 0 32 VBottom 2
WINDOW 3 32 32 VTop 2
SYMATTR InstName C8
SYMATTR Value 33pF
SYMBOL voltage -2000 -848 R0
SYMATTR InstName V7
SYMATTR Value 12
SYMBOL voltage -2000 -704 R0
WINDOW 123 0 0 Left 0
WINDOW 39 0 0 Left 0
SYMATTR InstName V8
SYMATTR Value 12
SYMBOL voltage -1568 -848 R0
SYMATTR InstName V9
SYMATTR Value 3.3
SYMBOL voltage -1568 -704 R0
WINDOW 123 0 0 Left 0
WINDOW 39 0 0 Left 0
SYMATTR InstName V10
SYMATTR Value 3.3
SYMBOL cap -1904 -144 R0
WINDOW 0 24 8 Left 1
WINDOW 3 24 56 Left 1
SYMATTR InstName C9
SYMATTR Value 0.1”
SYMATTR SpiceLine V=25 Irms=1.36 Rser=0.12 Lser=0 mfg="Vishay" pn="T51D106M025" type="Tantalum Polymer"
SYMBOL cap -1984 -144 R0
WINDOW 0 24 8 Left 1
WINDOW 3 24 56 Left 1
SYMATTR InstName C10
SYMATTR Value 10”
SYMATTR SpiceLine V=25 Irms=1.36 Rser=0.12 Lser=0 mfg="Vishay" pn="T51D106M025" type="Tantalum Polymer"
SYMBOL cap -1936 144 R0
WINDOW 0 24 8 Left 1
WINDOW 3 24 56 Left 1
SYMATTR InstName C11
SYMATTR Value 0.1”
SYMATTR SpiceLine V=25 Irms=1.36 Rser=0.12 Lser=0 mfg="Vishay" pn="T51D106M025" type="Tantalum Polymer"
SYMBOL cap -2016 144 R0
WINDOW 0 24 8 Left 1
WINDOW 3 24 56 Left 1
SYMATTR InstName C12
SYMATTR Value 10”
SYMATTR SpiceLine V=25 Irms=1.36 Rser=0.12 Lser=0 mfg="Vishay" pn="T51D106M025" type="Tantalum Polymer"
SYMBOL AD8130 -1728 48 R0
WINDOW 3 -1 99 Top 2
SYMATTR InstName U2
SYMBOL res -1536 -80 R90
WINDOW 0 0 56 VBottom 1
WINDOW 3 32 56 VTop 2
SYMATTR InstName Rf_AD9833
SYMATTR Value 0.1
SYMBOL res -1536 16 R90
WINDOW 0 0 56 VBottom 1
WINDOW 3 32 56 VTop 2
SYMATTR InstName Rg_AD8133
SYMATTR Value 0.1
SYMBOL AD8130 -1776 720 R0
WINDOW 3 -1 99 Top 2
SYMATTR InstName U1
SYMBOL cap -1952 528 R0
WINDOW 0 24 8 Left 1
WINDOW 3 24 56 Left 1
SYMATTR InstName C13
SYMATTR Value 0.1”
SYMATTR SpiceLine V=25 Irms=1.36 Rser=0.12 Lser=0 mfg="Vishay" pn="T51D106M025" type="Tantalum Polymer"
SYMBOL cap -2032 528 R0
WINDOW 0 24 8 Left 1
WINDOW 3 24 56 Left 1
SYMATTR InstName C14
SYMATTR Value 10”
SYMATTR SpiceLine V=25 Irms=1.36 Rser=0.12 Lser=0 mfg="Vishay" pn="T51D106M025" type="Tantalum Polymer"
SYMBOL cap -1984 816 R0
WINDOW 0 24 8 Left 1
WINDOW 3 24 56 Left 1
SYMATTR InstName C15
SYMATTR Value 0.1”
SYMATTR SpiceLine V=25 Irms=1.36 Rser=0.12 Lser=0 mfg="Vishay" pn="T51D106M025" type="Tantalum Polymer"
SYMBOL cap -2064 816 R0
WINDOW 0 24 8 Left 1
WINDOW 3 24 56 Left 1
SYMATTR InstName C16
SYMATTR Value 10”
SYMATTR SpiceLine V=25 Irms=1.36 Rser=0.12 Lser=0 mfg="Vishay" pn="T51D106M025" type="Tantalum Polymer"
SYMBOL res -1568 592 R90
WINDOW 0 0 56 VBottom 1
WINDOW 3 32 56 VTop 2
SYMATTR InstName R_sense
SYMATTR Value 10k
SYMBOL OpAmps\\AD8065 -1536 912 R180
WINDOW 0 16 32 Left 1
WINDOW 3 -99 110 Left 2
SYMATTR InstName U4
SYMBOL cap -1408 928 R0
WINDOW 0 24 8 Left 1
WINDOW 3 24 56 Left 1
SYMATTR InstName C21
SYMATTR Value 10”
SYMATTR SpiceLine V=25 Irms=1.36 Rser=0.12 Lser=0 mfg="Vishay" pn="T51D106M025" type="Tantalum Polymer"
SYMBOL cap -1488 928 R0
WINDOW 0 24 8 Left 1
WINDOW 3 24 56 Left 1
SYMATTR InstName C22
SYMATTR Value 0.1”
SYMATTR SpiceLine V=25 Irms=1.36 Rser=0.12 Lser=0 mfg="Vishay" pn="T51D106M025" type="Tantalum Polymer"
SYMBOL cap -1488 688 R0
WINDOW 0 24 8 Left 1
WINDOW 3 24 56 Left 1
SYMATTR InstName C19
SYMATTR Value 0.1”
SYMATTR SpiceLine V=25 Irms=1.36 Rser=0.12 Lser=0 mfg="Vishay" pn="T51D106M025" type="Tantalum Polymer"
SYMBOL cap -1408 688 R0
WINDOW 0 24 8 Left 1
WINDOW 3 24 56 Left 1
SYMATTR InstName C20
SYMATTR Value 10”
SYMATTR SpiceLine V=25 Irms=1.36 Rser=0.12 Lser=0 mfg="Vishay" pn="T51D106M025" type="Tantalum Polymer"
SYMBOL res -1568 832 R90
WINDOW 0 0 56 VBottom 1
WINDOW 3 32 56 VTop 1
SYMATTR InstName R_isolation
SYMATTR Value 47
SYMBOL cap -1232 592 R90
WINDOW 0 0 32 VBottom 1
WINDOW 3 32 32 VTop 1
SYMATTR InstName C_coupling
SYMATTR Value 47n
SYMATTR SpiceLine V=25 Irms=1.36 Rser=0.12 Lser=0 mfg="Vishay" pn="T51D106M025" type="Tantalum Polymer"
SYMBOL AD8130 -528 1232 R0
WINDOW 3 -1 99 Top 2
SYMATTR InstName U6
SYMBOL cap -656 1040 R0
WINDOW 0 24 8 Left 1
WINDOW 3 24 56 Left 1
SYMATTR InstName C17
SYMATTR Value 0.1”
SYMATTR SpiceLine V=25 Irms=1.36 Rser=0.12 Lser=0 mfg="Vishay" pn="T51D106M025" type="Tantalum Polymer"
SYMBOL cap -736 1040 R0
WINDOW 0 24 8 Left 1
WINDOW 3 24 56 Left 1
SYMATTR InstName C18
SYMATTR Value 10”
SYMATTR SpiceLine V=25 Irms=1.36 Rser=0.12 Lser=0 mfg="Vishay" pn="T51D106M025" type="Tantalum Polymer"
SYMBOL cap -656 1328 R0
WINDOW 0 24 8 Left 1
WINDOW 3 24 56 Left 1
SYMATTR InstName C23
SYMATTR Value 0.1”
SYMATTR SpiceLine V=25 Irms=1.36 Rser=0.12 Lser=0 mfg="Vishay" pn="T51D106M025" type="Tantalum Polymer"
SYMBOL cap -736 1328 R0
WINDOW 0 24 8 Left 1
WINDOW 3 24 56 Left 1
SYMATTR InstName C24
SYMATTR Value 10”
SYMATTR SpiceLine V=25 Irms=1.36 Rser=0.12 Lser=0 mfg="Vishay" pn="T51D106M025" type="Tantalum Polymer"
SYMBOL res -1104 1168 R0
WINDOW 0 36 40 Left 1
SYMATTR InstName R_Curr_Sense
SYMATTR Value 100
SYMBOL OpAmps\\AD8066 -208 736 R0
SYMATTR InstName U7
SYMBOL AD8130 416 624 R0
WINDOW 3 -1 99 Top 2
SYMATTR InstName U8
SYMBOL cap 48 464 R0
WINDOW 0 24 8 Left 1
WINDOW 3 24 56 Left 1
SYMATTR InstName C25
SYMATTR Value 0.1”
SYMATTR SpiceLine V=25 Irms=1.36 Rser=0.12 Lser=0 mfg="Vishay" pn="T51D106M025" type="Tantalum Polymer"
SYMBOL cap -32 464 R0
WINDOW 0 24 8 Left 1
WINDOW 3 24 56 Left 1
SYMATTR InstName C26
SYMATTR Value 10”
SYMATTR SpiceLine V=25 Irms=1.36 Rser=0.12 Lser=0 mfg="Vishay" pn="T51D106M025" type="Tantalum Polymer"
SYMBOL cap -448 848 R0
WINDOW 0 24 8 Left 1
WINDOW 3 24 56 Left 1
SYMATTR InstName C27
SYMATTR Value 0.1”
SYMATTR SpiceLine V=25 Irms=1.36 Rser=0.12 Lser=0 mfg="Vishay" pn="T51D106M025" type="Tantalum Polymer"
SYMBOL cap -528 848 R0
WINDOW 0 24 8 Left 1
WINDOW 3 24 56 Left 1
SYMATTR InstName C28
SYMATTR Value 10”
SYMATTR SpiceLine V=25 Irms=1.36 Rser=0.12 Lser=0 mfg="Vishay" pn="T51D106M025" type="Tantalum Polymer"
SYMBOL cap -400 528 R90
WINDOW 0 0 32 VBottom 2
WINDOW 3 32 32 VTop 2
SYMATTR InstName C29
SYMATTR Value 1p
SYMBOL cap 32 624 R90
WINDOW 0 0 32 VBottom 2
WINDOW 3 32 32 VTop 2
SYMATTR InstName C30
SYMATTR Value 1p
SYMBOL cap 288 720 R0
WINDOW 0 24 8 Left 1
WINDOW 3 15 48 Left 2
SYMATTR InstName C31
SYMATTR Value 0.1”
SYMATTR SpiceLine V=25 Irms=1.36 Rser=0.12 Lser=0 mfg="Vishay" pn="T51D106M025" type="Tantalum Polymer"
SYMBOL cap 208 720 R0
WINDOW 0 24 8 Left 1
WINDOW 3 16 48 Left 2
SYMATTR InstName C32
SYMATTR Value 10”
SYMATTR SpiceLine V=25 Irms=1.36 Rser=0.12 Lser=0 mfg="Vishay" pn="T51D106M025" type="Tantalum Polymer"
SYMBOL cap 288 432 R0
WINDOW 0 24 8 Left 1
WINDOW 3 24 56 Left 1
SYMATTR InstName C33
SYMATTR Value 0.1”
SYMATTR SpiceLine V=25 Irms=1.36 Rser=0.12 Lser=0 mfg="Vishay" pn="T51D106M025" type="Tantalum Polymer"
SYMBOL cap 208 432 R0
WINDOW 0 24 8 Left 1
WINDOW 3 24 56 Left 1
SYMATTR InstName C34
SYMATTR Value 10”
SYMATTR SpiceLine V=25 Irms=1.36 Rser=0.12 Lser=0 mfg="Vishay" pn="T51D106M025" type="Tantalum Polymer"
TEXT -1896 -416 Left 4 ;Power supply
TEXT 488 -864 Left 2 !.param RTERM=200\n.param RSET=6.8k\n.param fMCLK=75Meg\n.param FREQ0=10Meg\n.param FREQ1=1Meg\n.param PHASE0=0\n.param PHASE1=180
TEXT 488 -896 Left 2 ;; ===== User parameters =====
TEXT 488 -560 Left 2 !.param N=2**28\n.param M=2**12\n.param F0=int(FREQ0*N/fMCLK)\n.param F1=int(FREQ1*N/fMCLK)\n.param P0=int(PHASE0*N/360)\n.param P1=int(PHASE1*N/360)
TEXT 496 -592 Left 2 ;Register encoding (Do not change)
TEXT 872 -560 Left 2 ;Frequency resolution\nPhase resolution\nValue for register FREQ0\nValue for register FREQ1\nValue for register PHASE0\nValue for register PHASE1
TEXT -1384 -952 Left 4 ;DDS
TEXT -1776 -144 Left 2 !.include ad8130.cir
TEXT -768 -32 Left 2 !.include Ad8014.cir
TEXT -1624 -256 Left 3 ;Differential Amplifier
TEXT -1776 200 Left 2 ;R1, R2 should be consider to 10 or 22 Ohm
TEXT -856 168 Left 3 ;Buffer
TEXT 264 192 Left 3 ;Eliptic 7th-Order LPF
TEXT 48 1272 Left 2 !; Frequency sweep\n\n.step param FREQ list 10k 50k 100k 500k 1Meg 2Meg 3Meg\n; Analyses\n.ac dec 200 10k 100Meg\n;.tran 0 50u 0 5n\n.four {FREQ} V(Vout_Filtered)
TEXT -2048 1136 Left 3 ;Voltage Controlled Current Source
TEXT -1000 1368 Left 3 ;Tetrapolar
TEXT -1120 288 Left 3 ;LOAD
LINE Normal -1184 448 -2112 448
LINE Normal -2112 1168 -1184 1168
LINE Normal -2112 1168 -2112 448 1
LINE Normal -1184 1168 -1184 448 1
RECTANGLE Normal -2112 -352 -1440 -1008
RECTANGLE Normal 432 -352 -1424 -1008
RECTANGLE Normal -1280 416 -2112 -288
RECTANGLE Normal -368 208 -1232 -288
RECTANGLE Normal 1152 240 -304 -288
RECTANGLE Normal -832 1392 -1136 560 1
RECTANGLE Normal -1152 1568 880 256
