Version 4.1
SHEET 1 2412 1356
WIRE -1392 -1072 -1392 -1104
WIRE 512 -1040 -432 -1040
WIRE -288 -992 -576 -992
WIRE -208 -992 -288 -992
WIRE -1392 -960 -1392 -992
WIRE -1392 -960 -1472 -960
WIRE -576 -944 -576 -992
WIRE -16 -944 -96 -944
WIRE 144 -944 64 -944
WIRE -1472 -928 -1472 -960
WIRE -1392 -928 -1392 -960
WIRE 144 -896 144 -944
WIRE -208 -864 -208 -992
WIRE -96 -864 -96 -944
WIRE -1392 -816 -1392 -848
WIRE -576 -816 -576 -864
WIRE -432 -816 -432 -1040
WIRE -352 -816 -432 -816
WIRE 96 -800 48 -800
WIRE 512 -800 512 -1040
WIRE 512 -800 96 -800
WIRE -400 -752 -576 -752
WIRE -352 -752 -400 -752
WIRE -576 -736 -576 -752
WIRE 96 -720 48 -720
WIRE 352 -720 96 -720
WIRE 400 -720 352 -720
WIRE 512 -720 512 -800
WIRE 560 -720 512 -720
WIRE -400 -688 -512 -688
WIRE -352 -688 -400 -688
WIRE 352 -656 352 -720
WIRE 512 -656 512 -720
WIRE 80 -640 48 -640
WIRE 112 -640 80 -640
WIRE 240 -640 112 -640
WIRE -576 -624 -576 -656
WIRE -576 -624 -608 -624
WIRE -400 -624 -432 -624
WIRE -352 -624 -400 -624
WIRE -512 -592 -512 -688
WIRE 112 -576 112 -640
WIRE 240 -560 240 -640
WIRE -144 -512 -144 -576
WIRE 352 -496 352 -576
WIRE 512 -496 512 -576
WIRE -512 -480 -512 -512
WIRE 112 -448 112 -496
WIRE 240 -448 240 -496
WIRE -432 -432 -432 -624
WIRE -432 -320 -432 -352
WIRE 528 -192 496 -192
WIRE 640 -192 608 -192
WIRE 720 -192 688 -192
WIRE 832 -192 800 -192
WIRE 912 -192 880 -192
WIRE 1024 -192 992 -192
WIRE -1136 -176 -1232 -176
WIRE -1024 -176 -1056 -176
WIRE -1520 -160 -1584 -160
WIRE -1312 -160 -1440 -160
WIRE -240 -160 -272 -160
WIRE -1216 -144 -1232 -144
WIRE -544 -144 -592 -144
WIRE -352 -144 -464 -144
WIRE -1312 -128 -1408 -128
WIRE -240 -128 -272 -128
WIRE -1216 -112 -1232 -112
WIRE -352 -112 -432 -112
WIRE -1312 -96 -1376 -96
WIRE -432 -96 -432 -112
WIRE -224 -96 -272 -96
WIRE -144 -96 -224 -96
WIRE 256 -96 224 -96
WIRE 384 -96 336 -96
WIRE 464 -96 384 -96
WIRE 496 -96 496 -192
WIRE 496 -96 464 -96
WIRE 528 -96 496 -96
WIRE 640 -96 640 -192
WIRE 640 -96 592 -96
WIRE 656 -96 640 -96
WIRE 688 -96 688 -192
WIRE 688 -96 656 -96
WIRE 736 -96 688 -96
WIRE 832 -96 832 -192
WIRE 832 -96 800 -96
WIRE 864 -96 832 -96
WIRE 880 -96 880 -192
WIRE 880 -96 864 -96
WIRE 928 -96 880 -96
WIRE 1024 -96 1024 -192
WIRE 1024 -96 992 -96
WIRE 1056 -96 1024 -96
WIRE 1168 -96 1056 -96
WIRE 1216 -96 1168 -96
WIRE -1024 -80 -1024 -176
WIRE -1024 -80 -1232 -80
WIRE -1008 -80 -1024 -80
WIRE -1520 -64 -1584 -64
WIRE -1408 -64 -1408 -128
WIRE -1408 -64 -1440 -64
WIRE 384 -48 384 -96
WIRE 1168 -48 1168 -96
WIRE 464 -32 464 -96
WIRE 656 -32 656 -96
WIRE 864 -32 864 -96
WIRE 1056 -32 1056 -96
WIRE -432 0 -432 -16
WIRE -224 0 -224 -96
WIRE -224 0 -432 0
WIRE -1376 16 -1376 -96
WIRE -432 32 -432 0
WIRE 384 64 384 32
WIRE 464 64 464 32
WIRE 656 64 656 32
WIRE 864 64 864 32
WIRE 1056 64 1056 32
WIRE 1168 64 1168 32
WIRE -432 144 -432 112
FLAG -1472 -928 0
FLAG -1392 -1104 V_cc
IOPIN -1392 -1104 Out
FLAG -1392 -816 V_ee
IOPIN -1392 -816 Out
FLAG -576 -816 0
FLAG -576 -624 0
FLAG -512 -480 0
FLAG -432 -320 0
FLAG -144 -512 0
FLAG 112 -448 0
FLAG 240 -448 0
FLAG 144 -896 0
FLAG 96 -800 IOUT
FLAG 96 -720 IOUTB
FLAG 80 -640 SBO
FLAG -400 -752 MCLK
FLAG -400 -688 FSEL
FLAG -400 -624 PSEL
FLAG -288 -992 AVDD
FLAG 512 -496 0
FLAG 352 -496 0
FLAG 560 -720 IOut
IOPIN 560 -720 Out
FLAG 400 -720 IOutB
IOPIN 400 -720 Out
FLAG -1216 -144 V_cc
IOPIN -1216 -144 In
FLAG -1216 -112 V_ee
IOPIN -1216 -112 In
FLAG -1376 16 0
FLAG -1584 -160 IOut
IOPIN -1584 -160 In
FLAG -1584 -64 IOutB
IOPIN -1584 -64 In
FLAG -1008 -80 VOut_SinEnd
IOPIN -1008 -80 Out
FLAG -592 -144 VOut_SinEnd
IOPIN -592 -144 In
FLAG -240 -160 V_cc
IOPIN -240 -160 In
FLAG -240 -128 V_ee
IOPIN -240 -128 In
FLAG -432 144 0
FLAG -144 -96 VOut_Buff
IOPIN -144 -96 Out
FLAG 224 -96 VOut_Buff
IOPIN 224 -96 In
FLAG 464 64 0
FLAG 656 64 0
FLAG 864 64 0
FLAG 1056 64 0
FLAG 1168 64 0
FLAG 1216 -96 VOut_Filtered
IOPIN 1216 -96 Out
FLAG 384 64 0
SYMBOL voltage -1392 -1088 R0
SYMATTR InstName V2
SYMATTR Value 5
SYMBOL voltage -1392 -944 R0
WINDOW 123 0 0 Left 0
WINDOW 39 0 0 Left 0
SYMATTR InstName V3
SYMATTR Value 5
SYMBOL DAC\\AD9834 -144 -720 R0
SYMATTR InstName U5
SYMATTR SpiceLine TYPE=0 COMP=1 PHASE0={P0} PHASE1={P1}
SYMATTR SpiceLine2 fMCLK={fMCLK} FREQ0={F0} FREQ1={F1}
SYMBOL voltage -576 -960 R0
WINDOW 123 0 0 Left 0
WINDOW 39 0 0 Left 0
SYMATTR InstName V1
SYMATTR Value 3.3
SYMBOL voltage -576 -752 R0
WINDOW 3 -601 54 Left 2
WINDOW 123 0 0 Left 0
WINDOW 39 0 0 Left 0
SYMATTR Value PULSE(0 3.3 0 2n 2n {0.5/fMCLK-1n} {1/fMCLK})
SYMATTR InstName V4
SYMBOL voltage -512 -608 R0
WINDOW 3 -585 54 Left 2
WINDOW 123 0 0 Left 0
WINDOW 39 0 0 Left 0
SYMATTR Value PULSE(0 3.3 {2.2/FREQ0} 2n 2n {4/FREQ1} 1m)
SYMATTR InstName V5
SYMBOL voltage -432 -448 R0
WINDOW 3 -594 56 Left 2
WINDOW 123 0 0 Left 0
WINDOW 39 0 0 Left 0
SYMATTR Value PULSE(0 3.3 {6.2/FREQ0} 2n 2n {2/FREQ0} 1m)
SYMATTR InstName V6
SYMBOL res 80 -960 R90
WINDOW 0 0 56 VBottom 2
WINDOW 3 32 56 VTop 2
SYMATTR InstName R7
SYMATTR Value {RSET}
SYMBOL res 96 -592 R0
SYMATTR InstName R8
SYMATTR Value 3.1k
SYMBOL cap 224 -560 R0
SYMATTR InstName C6
SYMATTR Value 15p
SYMBOL res 336 -672 R0
SYMATTR InstName R9
SYMATTR Value {RTERM}
SYMBOL res 496 -672 R0
SYMATTR InstName R10
SYMATTR Value {RTERM}
SYMBOL AD8130 -1280 -128 R0
SYMATTR InstName U2
SYMBOL AD8014 -320 -128 R0
SYMATTR InstName U3
SYMBOL res -1424 -176 R90
WINDOW 0 0 56 VBottom 2
WINDOW 3 32 56 VTop 2
SYMATTR InstName R1
SYMATTR Value 49.9
SYMBOL res -1424 -80 R90
WINDOW 0 0 56 VBottom 2
WINDOW 3 32 56 VTop 2
SYMATTR InstName R2
SYMATTR Value 49.9
SYMBOL res -448 -160 R90
WINDOW 0 0 56 VBottom 2
WINDOW 3 32 56 VTop 2
SYMATTR InstName R3
SYMATTR Value 22
SYMBOL res -416 0 R180
WINDOW 0 36 76 Left 2
WINDOW 3 36 40 Left 2
SYMATTR InstName Rf
SYMATTR Value 499
SYMBOL res -448 16 R0
SYMATTR InstName Rg
SYMATTR Value 499
SYMBOL res 352 -112 R90
WINDOW 0 0 56 VBottom 2
WINDOW 3 32 56 VTop 2
SYMATTR InstName Rsource
SYMATTR Value 51
SYMBOL res 368 -64 R0
SYMATTR InstName R4
SYMATTR Value 51
SYMBOL cap 448 -32 R0
SYMATTR InstName C1
SYMATTR Value 180pF
SYMBOL ind 896 -176 R270
WINDOW 0 32 56 VTop 2
WINDOW 3 5 56 VBottom 2
SYMATTR InstName L1
SYMATTR Value 470n
SYMATTR SpiceLine Rser=1m
SYMBOL cap 640 -32 R0
SYMATTR InstName C2
SYMATTR Value 300pF
SYMBOL ind 512 -176 R270
WINDOW 0 32 56 VTop 2
WINDOW 3 5 56 VBottom 2
SYMATTR InstName L2
SYMATTR Value 270n
SYMATTR SpiceLine Rser=1m
SYMBOL cap 848 -32 R0
SYMATTR InstName C3
SYMATTR Value 330pF
SYMBOL ind 704 -176 R270
WINDOW 0 32 56 VTop 2
WINDOW 3 5 56 VBottom 2
SYMATTR InstName L3
SYMATTR Value 390n
SYMATTR SpiceLine Rser=1m
SYMBOL res 1152 -64 R0
SYMATTR InstName R5
SYMATTR Value 51
SYMBOL cap 1040 -32 R0
SYMATTR InstName C4
SYMATTR Value 270pF
SYMBOL cap 592 -112 R90
WINDOW 0 0 32 VBottom 2
WINDOW 3 32 32 VTop 2
SYMATTR InstName C5
SYMATTR Value 150pF
SYMBOL cap 800 -112 R90
WINDOW 0 0 32 VBottom 2
WINDOW 3 32 32 VTop 2
SYMATTR InstName C7
SYMATTR Value 100pF
SYMBOL cap 992 -112 R90
WINDOW 0 0 32 VBottom 2
WINDOW 3 32 32 VTop 2
SYMATTR InstName C8
SYMATTR Value 33pF
SYMBOL res -1040 -192 R90
WINDOW 0 0 56 VBottom 2
WINDOW 3 32 56 VTop 2
SYMATTR InstName R6
SYMATTR Value 0.1
TEXT -1880 -936 Left 4 ;Power supply
TEXT -736 -1240 Left 2 !.param RTERM=200\n.param RSET=6.8k\n.param fMCLK=75Meg\n.param FREQ0=10Meg\n.param FREQ1=1Meg\n.param PHASE0=0\n.param PHASE1=180
TEXT -736 -1272 Left 2 ;; ===== User parameters =====
TEXT -216 -1208 Left 2 !.param N=2**28\n.param M=2**12\n.param F0=int(FREQ0*N/fMCLK)\n.param F1=int(FREQ1*N/fMCLK)\n.param P0=int(PHASE0*N/360)\n.param P1=int(PHASE1*N/360)
TEXT -208 -1240 Left 2 ;Register encoding (Do not change)
TEXT 240 -1208 Left 2 ;Frequency resolution\nPhase resolution\nValue for register FREQ0\nValue for register FREQ1\nValue for register PHASE0\nValue for register PHASE1
TEXT -1880 -536 Left 2 ;.tran 0 2u 1n
TEXT -184 -424 Left 4 ;DDS
TEXT -720 -1376 Left 2 !.include ad8130.cir
TEXT -720 -1344 Left 2 !.include Ad8014.cir
TEXT -1664 64 Left 2 ;Differential\nAmplifier
TEXT -1664 -216 Left 1 ;R1, R2 should be consider to 10 or 22 Ohm
TEXT -1880 -496 Left 2 !.ac dec 200 100k 200Meg
