Version 4.1
SHEET 1 2412 1356
WIRE 464 -976 -432 -976
WIRE -288 -912 -512 -912
WIRE -208 -912 -288 -912
WIRE -48 -912 -96 -912
WIRE 96 -912 32 -912
WIRE -512 -880 -512 -912
WIRE 96 -880 96 -912
WIRE -208 -864 -208 -912
WIRE -96 -864 -96 -912
WIRE -432 -816 -432 -976
WIRE -352 -816 -432 -816
WIRE 96 -800 48 -800
WIRE 464 -800 464 -976
WIRE 464 -800 96 -800
WIRE -1408 -768 -1408 -800
WIRE -400 -752 -688 -752
WIRE -352 -752 -400 -752
WIRE -688 -736 -688 -752
WIRE 96 -720 48 -720
WIRE 320 -720 96 -720
WIRE 336 -720 320 -720
WIRE 464 -720 464 -800
WIRE 480 -720 464 -720
WIRE -400 -688 -608 -688
WIRE -352 -688 -400 -688
WIRE -608 -672 -608 -688
WIRE -1408 -656 -1408 -688
WIRE -1408 -656 -1488 -656
WIRE 320 -656 320 -720
WIRE 464 -656 464 -720
WIRE 80 -640 48 -640
WIRE 112 -640 80 -640
WIRE 224 -640 112 -640
WIRE -1488 -624 -1488 -656
WIRE -1408 -624 -1408 -656
WIRE -400 -624 -528 -624
WIRE -352 -624 -400 -624
WIRE -528 -608 -528 -624
WIRE 112 -608 112 -640
WIRE 224 -608 224 -640
WIRE 224 -528 224 -544
WIRE 320 -528 320 -576
WIRE 464 -528 464 -576
WIRE -1408 -512 -1408 -544
WIRE -144 -512 -144 -576
WIRE 624 -240 592 -240
WIRE 736 -240 704 -240
WIRE 816 -240 784 -240
WIRE 928 -240 896 -240
WIRE 1008 -240 976 -240
WIRE 1120 -240 1088 -240
WIRE -208 -224 -240 -224
WIRE -512 -208 -560 -208
WIRE -320 -208 -432 -208
WIRE -208 -192 -240 -192
WIRE -1136 -176 -1232 -176
WIRE -1024 -176 -1056 -176
WIRE -320 -176 -400 -176
WIRE -1520 -160 -1584 -160
WIRE -1312 -160 -1440 -160
WIRE -400 -160 -400 -176
WIRE -192 -160 -240 -160
WIRE -112 -160 -192 -160
WIRE -1216 -144 -1232 -144
WIRE 352 -144 320 -144
WIRE 480 -144 432 -144
WIRE 560 -144 480 -144
WIRE 592 -144 592 -240
WIRE 592 -144 560 -144
WIRE 624 -144 592 -144
WIRE 736 -144 736 -240
WIRE 736 -144 688 -144
WIRE 752 -144 736 -144
WIRE 784 -144 784 -240
WIRE 784 -144 752 -144
WIRE 832 -144 784 -144
WIRE 928 -144 928 -240
WIRE 928 -144 896 -144
WIRE 960 -144 928 -144
WIRE 976 -144 976 -240
WIRE 976 -144 960 -144
WIRE 1024 -144 976 -144
WIRE 1120 -144 1120 -240
WIRE 1120 -144 1088 -144
WIRE 1152 -144 1120 -144
WIRE 1264 -144 1152 -144
WIRE 1312 -144 1264 -144
WIRE -1312 -128 -1408 -128
WIRE -1216 -112 -1232 -112
WIRE -1312 -96 -1376 -96
WIRE 480 -96 480 -144
WIRE 1264 -96 1264 -144
WIRE -1024 -80 -1024 -176
WIRE -1024 -80 -1232 -80
WIRE -1008 -80 -1024 -80
WIRE 560 -80 560 -144
WIRE 752 -80 752 -144
WIRE 960 -80 960 -144
WIRE 1152 -80 1152 -144
WIRE -1520 -64 -1584 -64
WIRE -1408 -64 -1408 -128
WIRE -1408 -64 -1440 -64
WIRE -400 -64 -400 -80
WIRE -192 -64 -192 -160
WIRE -192 -64 -400 -64
WIRE -400 -32 -400 -64
WIRE -1376 16 -1376 -96
WIRE 480 16 480 -16
WIRE 560 16 560 -16
WIRE 752 16 752 -16
WIRE 960 16 960 -16
WIRE 1152 16 1152 -16
WIRE 1264 16 1264 -16
WIRE -400 80 -400 48
FLAG -1488 -624 0
FLAG -1408 -800 V_cc
IOPIN -1408 -800 Out
FLAG -1408 -512 V_ee
IOPIN -1408 -512 Out
FLAG -512 -800 0
FLAG -688 -656 0
FLAG -608 -592 0
FLAG -528 -528 0
FLAG -144 -512 0
FLAG 112 -528 0
FLAG 224 -528 0
FLAG 96 -880 0
FLAG 96 -800 IOUT
FLAG 96 -720 IOUTB
FLAG 80 -640 SBO
FLAG -400 -752 MCLK
FLAG -400 -688 FSEL
FLAG -400 -624 PSEL
FLAG -288 -912 AVDD
FLAG 480 -720 IOut
IOPIN 480 -720 Out
FLAG 336 -720 IOutB
IOPIN 336 -720 Out
FLAG -1216 -144 V_cc
IOPIN -1216 -144 In
FLAG -1216 -112 V_ee
IOPIN -1216 -112 In
FLAG -1376 16 0
FLAG -1584 -160 IOut
IOPIN -1584 -160 In
FLAG -1584 -64 IOutB
IOPIN -1584 -64 In
FLAG -1008 -80 VOut_SinEnd
IOPIN -1008 -80 Out
FLAG -560 -208 VOut_SinEnd
IOPIN -560 -208 In
FLAG -208 -224 V_cc
IOPIN -208 -224 In
FLAG -208 -192 V_ee
IOPIN -208 -192 In
FLAG -400 80 0
FLAG -112 -160 VOut_Buff
IOPIN -112 -160 Out
FLAG 320 -144 VOut_Buff
IOPIN 320 -144 In
FLAG 560 16 0
FLAG 752 16 0
FLAG 960 16 0
FLAG 1152 16 0
FLAG 1264 16 0
FLAG 1312 -144 VOut_Filtered
IOPIN 1312 -144 Out
FLAG 480 16 0
FLAG 320 -528 0
FLAG 464 -528 0
SYMBOL voltage -1408 -784 R0
SYMATTR InstName V2
SYMATTR Value 5
SYMBOL voltage -1408 -640 R0
WINDOW 123 0 0 Left 0
WINDOW 39 0 0 Left 0
SYMATTR InstName V3
SYMATTR Value 5
SYMBOL DAC\\AD9834 -144 -720 R0
SYMATTR InstName U5
SYMATTR SpiceLine TYPE=0 COMP=1 PHASE0={P0} PHASE1={P1}
SYMATTR SpiceLine2 fMCLK={fMCLK} FREQ0={F0} FREQ1={F1}
SYMBOL voltage -512 -896 R0
WINDOW 123 0 0 Left 0
WINDOW 39 0 0 Left 0
SYMATTR InstName V1
SYMATTR Value 3.3
SYMBOL voltage -688 -752 R0
WINDOW 3 -600 78 Left 2
WINDOW 123 0 0 Left 0
WINDOW 39 0 0 Left 0
SYMATTR Value PULSE(0 3.3 0 2n 2n {0.5/fMCLK-1n} {1/fMCLK})
SYMATTR InstName V4
SYMBOL voltage -608 -688 R0
WINDOW 3 -581 82 Left 2
WINDOW 123 0 0 Left 0
WINDOW 39 0 0 Left 0
WINDOW 0 27 25 Left 2
SYMATTR Value PULSE(0 3.3 {2.2/FREQ0} 2n 2n {4/FREQ1} 1m)
SYMATTR InstName V5
SYMBOL voltage -528 -624 R0
WINDOW 3 -578 83 Left 2
WINDOW 123 0 0 Left 0
WINDOW 39 0 0 Left 0
WINDOW 0 31 30 Left 2
SYMATTR Value PULSE(0 3.3 {6.2/FREQ0} 2n 2n {2/FREQ0} 1m)
SYMATTR InstName V6
SYMBOL res 48 -928 R90
WINDOW 0 0 56 VBottom 2
WINDOW 3 32 56 VTop 2
SYMATTR InstName R7
SYMATTR Value {RSET}
SYMBOL res 96 -624 R0
SYMATTR InstName R8
SYMATTR Value 3.1k
SYMBOL cap 208 -608 R0
SYMATTR InstName C6
SYMATTR Value 15p
SYMBOL res 304 -672 R0
WINDOW 3 36 76 Left 1
SYMATTR InstName R9
SYMATTR Value {RTERM}
SYMBOL res 448 -672 R0
WINDOW 3 36 76 Left 1
SYMATTR InstName R10
SYMATTR Value {RTERM}
SYMBOL AD8130 -1280 -128 R0
SYMATTR InstName U2
SYMBOL AD8014 -288 -192 R0
SYMATTR InstName U3
SYMBOL res -1424 -176 R90
WINDOW 0 0 56 VBottom 2
WINDOW 3 32 56 VTop 2
SYMATTR InstName R1
SYMATTR Value 49.9
SYMBOL res -1424 -80 R90
WINDOW 0 0 56 VBottom 2
WINDOW 3 32 56 VTop 2
SYMATTR InstName R2
SYMATTR Value 49.9
SYMBOL res -416 -224 R90
WINDOW 0 0 56 VBottom 2
WINDOW 3 32 56 VTop 2
SYMATTR InstName R3
SYMATTR Value 22
SYMBOL res -384 -64 R180
WINDOW 0 36 76 Left 2
WINDOW 3 36 40 Left 2
SYMATTR InstName Rf
SYMATTR Value 499
SYMBOL res -416 -48 R0
SYMATTR InstName Rg
SYMATTR Value 499
SYMBOL res 448 -160 R90
WINDOW 0 0 56 VBottom 2
WINDOW 3 32 56 VTop 2
SYMATTR InstName Rsource
SYMATTR Value 51
SYMBOL res 464 -112 R0
SYMATTR InstName R4
SYMATTR Value 51
SYMBOL cap 544 -80 R0
SYMATTR InstName C1
SYMATTR Value 180pF
SYMBOL ind 992 -224 R270
WINDOW 0 32 56 VTop 2
WINDOW 3 5 56 VBottom 2
SYMATTR InstName L1
SYMATTR Value 470n
SYMATTR SpiceLine Rser=1m
SYMBOL cap 736 -80 R0
SYMATTR InstName C2
SYMATTR Value 300pF
SYMBOL ind 608 -224 R270
WINDOW 0 32 56 VTop 2
WINDOW 3 5 56 VBottom 2
SYMATTR InstName L2
SYMATTR Value 270n
SYMATTR SpiceLine Rser=1m
SYMBOL cap 944 -80 R0
SYMATTR InstName C3
SYMATTR Value 330pF
SYMBOL ind 800 -224 R270
WINDOW 0 32 56 VTop 2
WINDOW 3 5 56 VBottom 2
SYMATTR InstName L3
SYMATTR Value 390n
SYMATTR SpiceLine Rser=1m
SYMBOL res 1248 -112 R0
SYMATTR InstName R5
SYMATTR Value 51
SYMBOL cap 1136 -80 R0
SYMATTR InstName C4
SYMATTR Value 270pF
SYMBOL cap 688 -160 R90
WINDOW 0 0 32 VBottom 2
WINDOW 3 32 32 VTop 2
SYMATTR InstName C5
SYMATTR Value 150pF
SYMBOL cap 896 -160 R90
WINDOW 0 0 32 VBottom 2
WINDOW 3 32 32 VTop 2
SYMATTR InstName C7
SYMATTR Value 100pF
SYMBOL cap 1088 -160 R90
WINDOW 0 0 32 VBottom 2
WINDOW 3 32 32 VTop 2
SYMATTR InstName C8
SYMATTR Value 33pF
SYMBOL res -1040 -192 R90
WINDOW 0 0 56 VBottom 2
WINDOW 3 32 56 VTop 2
SYMATTR InstName R6
SYMATTR Value 0.1
SYMBOL OpAmps\\AD8066 -1280 768 R0
SYMATTR InstName U6
TEXT -1688 -536 Left 4 ;Power supply
TEXT 608 -992 Left 2 !.param RTERM=200\n.param RSET=6.8k\n.param fMCLK=75Meg\n.param FREQ0=10Meg\n.param FREQ1=1Meg\n.param PHASE0=0\n.param PHASE1=180
TEXT 608 -1024 Left 2 ;; ===== User parameters =====
TEXT 608 -688 Left 2 !.param N=2**28\n.param M=2**12\n.param F0=int(FREQ0*N/fMCLK)\n.param F1=int(FREQ1*N/fMCLK)\n.param P0=int(PHASE0*N/360)\n.param P1=int(PHASE1*N/360)
TEXT 616 -720 Left 2 ;Register encoding (Do not change)
TEXT 1064 -688 Left 2 ;Frequency resolution\nPhase resolution\nValue for register FREQ0\nValue for register FREQ1\nValue for register PHASE0\nValue for register PHASE1
TEXT -1200 -968 Left 2 !.tran 0 2u 1n
TEXT -184 -424 Left 4 ;DDS
TEXT -1320 0 Left 2 !.include ad8130.cir
TEXT -320 -32 Left 2 !.include Ad8014.cir
TEXT -1688 72 Left 3 ;Differential Amplifier
TEXT -1672 -248 Left 2 ;R1, R2 should be consider to 10 or 22 Ohm
TEXT -1200 -928 Left 2 ;.ac dec 200 100k 200Meg
TEXT -728 -40 Left 3 ;Buffer
TEXT 104 -8 Left 3 ;Eliptic 7th-Order LPF
