Version 4.1
SHEET 1 2412 1356
WIRE -1392 -1072 -1392 -1104
WIRE 512 -1040 -432 -1040
WIRE -288 -992 -576 -992
WIRE -208 -992 -288 -992
WIRE -1392 -960 -1392 -992
WIRE -1392 -960 -1472 -960
WIRE -576 -944 -576 -992
WIRE -16 -944 -96 -944
WIRE 144 -944 64 -944
WIRE -1472 -928 -1472 -960
WIRE -1392 -928 -1392 -960
WIRE 144 -896 144 -944
WIRE -208 -864 -208 -992
WIRE -96 -864 -96 -944
WIRE -1392 -816 -1392 -848
WIRE -576 -816 -576 -864
WIRE -432 -816 -432 -1040
WIRE -352 -816 -432 -816
WIRE 96 -800 48 -800
WIRE 512 -800 512 -1040
WIRE 512 -800 96 -800
WIRE -400 -752 -576 -752
WIRE -352 -752 -400 -752
WIRE -576 -736 -576 -752
WIRE 96 -720 48 -720
WIRE 352 -720 96 -720
WIRE 400 -720 352 -720
WIRE 512 -720 512 -800
WIRE 560 -720 512 -720
WIRE -400 -688 -512 -688
WIRE -352 -688 -400 -688
WIRE 352 -656 352 -720
WIRE 512 -656 512 -720
WIRE 80 -640 48 -640
WIRE 112 -640 80 -640
WIRE 240 -640 112 -640
WIRE -576 -624 -576 -656
WIRE -576 -624 -608 -624
WIRE -400 -624 -432 -624
WIRE -352 -624 -400 -624
WIRE -512 -592 -512 -688
WIRE 112 -576 112 -640
WIRE 240 -560 240 -640
WIRE -144 -512 -144 -576
WIRE 352 -496 352 -576
WIRE 512 -496 512 -576
WIRE -512 -480 -512 -512
WIRE 112 -448 112 -496
WIRE 240 -448 240 -496
WIRE -432 -432 -432 -624
WIRE -432 -320 -432 -352
WIRE 576 -80 544 -80
WIRE 688 -80 656 -80
WIRE 768 -80 736 -80
WIRE 880 -80 848 -80
WIRE 960 -80 928 -80
WIRE 1072 -80 1040 -80
WIRE -1136 16 -1232 16
WIRE -1024 16 -1056 16
WIRE 304 16 272 16
WIRE 432 16 384 16
WIRE 512 16 432 16
WIRE 544 16 544 -80
WIRE 544 16 512 16
WIRE 576 16 544 16
WIRE 688 16 688 -80
WIRE 688 16 640 16
WIRE 704 16 688 16
WIRE 736 16 736 -80
WIRE 736 16 704 16
WIRE 784 16 736 16
WIRE 880 16 880 -80
WIRE 880 16 848 16
WIRE 912 16 880 16
WIRE 928 16 928 -80
WIRE 928 16 912 16
WIRE 976 16 928 16
WIRE 1072 16 1072 -80
WIRE 1072 16 1040 16
WIRE 1104 16 1072 16
WIRE 1216 16 1104 16
WIRE 1264 16 1216 16
WIRE -1520 32 -1584 32
WIRE -1312 32 -1440 32
WIRE -240 32 -272 32
WIRE -1216 48 -1232 48
WIRE -544 48 -592 48
WIRE -352 48 -464 48
WIRE -1312 64 -1408 64
WIRE -240 64 -272 64
WIRE 432 64 432 16
WIRE 1216 64 1216 16
WIRE -1216 80 -1232 80
WIRE -352 80 -432 80
WIRE 512 80 512 16
WIRE 704 80 704 16
WIRE 912 80 912 16
WIRE 1104 80 1104 16
WIRE -1312 96 -1376 96
WIRE -432 96 -432 80
WIRE -224 96 -272 96
WIRE -144 96 -224 96
WIRE -1024 112 -1024 16
WIRE -1024 112 -1232 112
WIRE -1008 112 -1024 112
WIRE -1520 128 -1584 128
WIRE -1408 128 -1408 64
WIRE -1408 128 -1440 128
WIRE 432 176 432 144
WIRE 512 176 512 144
WIRE 704 176 704 144
WIRE 912 176 912 144
WIRE 1104 176 1104 144
WIRE 1216 176 1216 144
WIRE -432 192 -432 176
WIRE -224 192 -224 96
WIRE -224 192 -432 192
WIRE -1376 208 -1376 96
WIRE -432 224 -432 192
WIRE -432 336 -432 304
FLAG -1472 -928 0
FLAG -1392 -1104 V_cc
IOPIN -1392 -1104 Out
FLAG -1392 -816 V_ee
IOPIN -1392 -816 Out
FLAG -576 -816 0
FLAG -576 -624 0
FLAG -512 -480 0
FLAG -432 -320 0
FLAG -144 -512 0
FLAG 112 -448 0
FLAG 240 -448 0
FLAG 144 -896 0
FLAG 96 -800 IOUT
FLAG 96 -720 IOUTB
FLAG 80 -640 SBO
FLAG -400 -752 MCLK
FLAG -400 -688 FSEL
FLAG -400 -624 PSEL
FLAG -288 -992 AVDD
FLAG 512 -496 0
FLAG 352 -496 0
FLAG 560 -720 IOut
IOPIN 560 -720 Out
FLAG 400 -720 IOutB
IOPIN 400 -720 Out
FLAG -1216 48 V_cc
IOPIN -1216 48 In
FLAG -1216 80 V_ee
IOPIN -1216 80 In
FLAG -1376 208 0
FLAG -1584 32 IOut
IOPIN -1584 32 In
FLAG -1584 128 IOutB
IOPIN -1584 128 In
FLAG -1008 112 VOut_SinEnd
IOPIN -1008 112 Out
FLAG -592 48 VOut_SinEnd
IOPIN -592 48 In
FLAG -240 32 V_cc
IOPIN -240 32 In
FLAG -240 64 V_ee
IOPIN -240 64 In
FLAG -432 336 0
FLAG -144 96 VOut_Buff
IOPIN -144 96 Out
FLAG 272 16 VOut_Buff
IOPIN 272 16 In
FLAG 512 176 0
FLAG 704 176 0
FLAG 912 176 0
FLAG 1104 176 0
FLAG 1216 176 0
FLAG 1264 16 VOut_Filtered
IOPIN 1264 16 Out
FLAG 432 176 0
SYMBOL voltage -1392 -1088 R0
SYMATTR InstName V2
SYMATTR Value 5
SYMBOL voltage -1392 -944 R0
WINDOW 123 0 0 Left 0
WINDOW 39 0 0 Left 0
SYMATTR InstName V3
SYMATTR Value 5
SYMBOL DAC\\AD9834 -144 -720 R0
SYMATTR InstName U5
SYMATTR SpiceLine TYPE=0 COMP=1 PHASE0={P0} PHASE1={P1}
SYMATTR SpiceLine2 fMCLK={fMCLK} FREQ0={F0} FREQ1={F1}
SYMBOL voltage -576 -960 R0
WINDOW 123 0 0 Left 0
WINDOW 39 0 0 Left 0
SYMATTR InstName V1
SYMATTR Value 3.3
SYMBOL voltage -576 -752 R0
WINDOW 3 -601 54 Left 2
WINDOW 123 0 0 Left 0
WINDOW 39 0 0 Left 0
SYMATTR Value PULSE(0 3.3 0 2n 2n {0.5/fMCLK-1n} {1/fMCLK})
SYMATTR InstName V4
SYMBOL voltage -512 -608 R0
WINDOW 3 -585 54 Left 2
WINDOW 123 0 0 Left 0
WINDOW 39 0 0 Left 0
SYMATTR Value PULSE(0 3.3 {2.2/FREQ0} 2n 2n {4/FREQ1} 1m)
SYMATTR InstName V5
SYMBOL voltage -432 -448 R0
WINDOW 3 -594 56 Left 2
WINDOW 123 0 0 Left 0
WINDOW 39 0 0 Left 0
SYMATTR Value PULSE(0 3.3 {6.2/FREQ0} 2n 2n {2/FREQ0} 1m)
SYMATTR InstName V6
SYMBOL res 80 -960 R90
WINDOW 0 0 56 VBottom 2
WINDOW 3 32 56 VTop 2
SYMATTR InstName R7
SYMATTR Value {RSET}
SYMBOL res 96 -592 R0
SYMATTR InstName R8
SYMATTR Value 3.1k
SYMBOL cap 224 -560 R0
SYMATTR InstName C6
SYMATTR Value 15p
SYMBOL res 336 -672 R0
SYMATTR InstName R9
SYMATTR Value {RTERM}
SYMBOL res 496 -672 R0
SYMATTR InstName R10
SYMATTR Value {RTERM}
SYMBOL AD8130 -1280 64 R0
SYMATTR InstName U2
SYMBOL AD8014 -320 64 R0
SYMATTR InstName U3
SYMBOL res -1424 16 R90
WINDOW 0 0 56 VBottom 2
WINDOW 3 32 56 VTop 2
SYMATTR InstName R1
SYMATTR Value 49.9
SYMBOL res -1424 112 R90
WINDOW 0 0 56 VBottom 2
WINDOW 3 32 56 VTop 2
SYMATTR InstName R2
SYMATTR Value 49.9
SYMBOL res -448 32 R90
WINDOW 0 0 56 VBottom 2
WINDOW 3 32 56 VTop 2
SYMATTR InstName R3
SYMATTR Value 22
SYMBOL res -416 192 R180
WINDOW 0 36 76 Left 2
WINDOW 3 36 40 Left 2
SYMATTR InstName Rf
SYMATTR Value 499
SYMBOL res -448 208 R0
SYMATTR InstName Rg
SYMATTR Value 499
SYMBOL res 400 0 R90
WINDOW 0 0 56 VBottom 2
WINDOW 3 32 56 VTop 2
SYMATTR InstName Rsource
SYMATTR Value 51
SYMBOL res 416 48 R0
SYMATTR InstName R4
SYMATTR Value 51
SYMBOL cap 496 80 R0
SYMATTR InstName C1
SYMATTR Value 180pF
SYMBOL ind 944 -64 R270
WINDOW 0 32 56 VTop 2
WINDOW 3 5 56 VBottom 2
SYMATTR InstName L1
SYMATTR Value 470n
SYMATTR SpiceLine Rser=1m
SYMBOL cap 688 80 R0
SYMATTR InstName C2
SYMATTR Value 300pF
SYMBOL ind 560 -64 R270
WINDOW 0 32 56 VTop 2
WINDOW 3 5 56 VBottom 2
SYMATTR InstName L2
SYMATTR Value 270n
SYMATTR SpiceLine Rser=1m
SYMBOL cap 896 80 R0
SYMATTR InstName C3
SYMATTR Value 330pF
SYMBOL ind 752 -64 R270
WINDOW 0 32 56 VTop 2
WINDOW 3 5 56 VBottom 2
SYMATTR InstName L3
SYMATTR Value 390n
SYMATTR SpiceLine Rser=1m
SYMBOL res 1200 48 R0
SYMATTR InstName R5
SYMATTR Value 51
SYMBOL cap 1088 80 R0
SYMATTR InstName C4
SYMATTR Value 270pF
SYMBOL cap 640 0 R90
WINDOW 0 0 32 VBottom 2
WINDOW 3 32 32 VTop 2
SYMATTR InstName C5
SYMATTR Value 150pF
SYMBOL cap 848 0 R90
WINDOW 0 0 32 VBottom 2
WINDOW 3 32 32 VTop 2
SYMATTR InstName C7
SYMATTR Value 100pF
SYMBOL cap 1040 0 R90
WINDOW 0 0 32 VBottom 2
WINDOW 3 32 32 VTop 2
SYMATTR InstName C8
SYMATTR Value 33pF
SYMBOL res -1040 0 R90
WINDOW 0 0 56 VBottom 2
WINDOW 3 32 56 VTop 2
SYMATTR InstName R6
SYMATTR Value 0.1
TEXT -1880 -936 Left 4 ;Power supply
TEXT -736 -1240 Left 2 !.param RTERM=200\n.param RSET=6.8k\n.param fMCLK=75Meg\n.param FREQ0=10Meg\n.param FREQ1=1Meg\n.param PHASE0=0\n.param PHASE1=180
TEXT -736 -1272 Left 2 ;; ===== User parameters =====
TEXT -216 -1208 Left 2 !.param N=2**28\n.param M=2**12\n.param F0=int(FREQ0*N/fMCLK)\n.param F1=int(FREQ1*N/fMCLK)\n.param P0=int(PHASE0*N/360)\n.param P1=int(PHASE1*N/360)
TEXT -208 -1240 Left 2 ;Register encoding (Do not change)
TEXT 240 -1208 Left 2 ;Frequency resolution\nPhase resolution\nValue for register FREQ0\nValue for register FREQ1\nValue for register PHASE0\nValue for register PHASE1
TEXT -1920 456 Left 2 ;.tran 0 2u 1n
TEXT -184 -424 Left 4 ;DDS
TEXT -720 -1376 Left 2 !.include ad8130.cir
TEXT -720 -1344 Left 2 !.include Ad8014.cir
TEXT -1664 256 Left 2 ;Differential\nAmplifier
TEXT -1664 -24 Left 1 ;R1, R2 should be consider to 10 or 22 Ohm
TEXT -1920 496 Left 2 !.ac dec 200 100k 200Meg
